IEEETestCases/37Bus/ieee37_Curr_Elem.Txt

CIRCUIT ELEMENT CURRENTS

(Currents into element from indicated bus)

Power Delivery Elements

  Bus     Phase    Magnitude, A     Angle      (Real)   +j  (Imag)

ELEMENT = "Vsource.SOURCE"
SOURCEBUS     1       0.00015997 /_  -90.0 =  -4.7454E-008 +j -0.00015997
SOURCEBUS     2       0.00015989 /_  150.0 =  -0.00013847 +j 7.9944E-005
SOURCEBUS     3       0.00015997 /_   30.0 =  0.00013851 +j 8.0024E-005
------------
SOURCEBUS     0       0.00015997 /_   90.0 =  4.7454E-008 +j 0.00015997
SOURCEBUS     0       0.00015989 /_  -30.0 =  0.00013847 +j -7.9944E-005
SOURCEBUS     0       0.00015997 /_ -150.0 =  -0.00013851 +j -8.0024E-005

ELEMENT = "Transformer.SUBXF"
SOURCEBUS     1       0.00015997 /_   90.0 =  4.7506E-008 +j 0.00015997
SOURCEBUS     2       0.00015989 /_  -30.0 =  0.00013847 +j -7.9944E-005
SOURCEBUS     3       0.00015997 /_ -150.0 =  -0.00013851 +j -8.0024E-005
SOURCEBUS     0                0 /_    0.0 =          0 +j         0
------------
799           1        0.0078656 /_  -90.0 =  -2.3053E-006 +j -0.0078656
799           2        0.0078618 /_  150.0 =  -0.0068085 +j 0.0039309
799           3        0.0078656 /_   30.0 =  0.0068107 +j 0.0039348
799           0                0 /_    0.0 =          0 +j         0

ELEMENT = "Transformer.XFM1"
709           1      4.0091E-005 /_  -90.0 =  -5.8342E-009 +j -4.0091E-005
709           2      4.0101E-005 /_  150.0 =  -3.4728E-005 +j 2.005E-005
709           3      4.0091E-005 /_   30.0 =  3.4717E-005 +j 2.005E-005
709           0                0 /_    0.0 =          0 +j         0
------------
775           1      5.7521E-012 /_  108.4 =  -1.819E-012 +j 5.457E-012
775           2      8.1348E-012 /_ -153.4 =  -7.276E-012 +j -3.638E-012
775           3      4.0674E-012 /_  -26.6 =  3.638E-012 +j -1.819E-012
775           0                0 /_    0.0 =          0 +j         0

ELEMENT = "Line.L1"
701           1         0.039956 /_   90.0 =  1.1578E-005 +j  0.039956
701           2         0.039976 /_  -30.0 =    0.03462 +j -0.019988
701           3         0.039956 /_ -150.0 =  -0.034597 +j -0.019988
------------
702           1         0.024442 /_   90.0 =  7.0476E-006 +j  0.024442
702           2         0.024454 /_  -30.0 =   0.021178 +j -0.012227
702           3         0.024442 /_ -150.0 =  -0.021164 +j -0.012227

ELEMENT = "Line.L2"
702           1        0.0069051 /_   90.0 =  1.9989E-006 +j 0.0069051
702           2        0.0069086 /_  -30.0 =   0.005983 +j -0.0034543
702           3        0.0069051 /_ -150.0 =  -0.005979 +j -0.0034543
------------
705           1        0.0057414 /_   90.0 =  1.6601E-006 +j 0.0057414
705           2        0.0057442 /_  -30.0 =  0.0049747 +j -0.0028721
705           3        0.0057414 /_ -150.0 =  -0.0049714 +j -0.0028721

ELEMENT = "Line.L3"
702           1        0.0092804 /_   90.0 =  2.6888E-006 +j 0.0092804
702           2         0.009285 /_  -30.0 =  0.0080411 +j -0.0046425
702           3        0.0092804 /_ -150.0 =  -0.0080357 +j -0.0046425
------------
713           1        0.0048581 /_   90.0 =  1.402E-006 +j 0.0048581
713           2        0.0048606 /_  -30.0 =  0.0042094 +j -0.0024303
713           3        0.0048582 /_ -150.0 =  -0.0042066 +j -0.0024303

ELEMENT = "Line.L4"
702           1         0.048772 /_   90.0 =  1.4129E-005 +j  0.048772
702           2         0.048796 /_  -30.0 =   0.042259 +j -0.024398
702           3         0.048772 /_ -150.0 =  -0.042231 +j -0.024398
------------
703           1         0.039775 /_   90.0 =  1.1495E-005 +j  0.039775
703           2         0.039795 /_  -30.0 =   0.034463 +j -0.019897
703           3         0.039775 /_ -150.0 =   -0.03444 +j -0.019897

ELEMENT = "Line.L5"
703           1        0.0046086 /_   90.0 =  1.3365E-006 +j 0.0046086
703           2        0.0046109 /_  -30.0 =  0.0039931 +j -0.0023054
703           3        0.0046086 /_ -150.0 =  -0.0039905 +j -0.0023054
------------
727           1        0.0029793 /_   90.0 =  8.5993E-007 +j 0.0029793
727           2        0.0029808 /_  -30.0 =  0.0025815 +j -0.0014904
727           3        0.0029793 /_ -150.0 =  -0.0025797 +j -0.0014904

ELEMENT = "Line.L6"
703           1         0.015117 /_   90.0 =  4.3912E-006 +j  0.015117
703           2         0.015124 /_  -30.0 =   0.013098 +j -0.0075622
703           3         0.015117 /_ -150.0 =  -0.013089 +j -0.0075622
------------
730           1        0.0084473 /_   90.0 =  2.431E-006 +j 0.0084473
730           2        0.0084515 /_  -30.0 =  0.0073193 +j -0.0042258
730           3        0.0084473 /_ -150.0 =  -0.0073144 +j -0.0042258

ELEMENT = "Line.L7"
704           1        0.0016138 /_   90.0 =  4.6832E-007 +j 0.0016138
704           2        0.0016146 /_  -30.0 =  0.0013983 +j -0.00080729
704           3        0.0016138 /_ -150.0 =  -0.0013973 +j -0.00080729
------------
714           1       0.00091553 /_   90.0 =  2.6372E-007 +j 0.00091553
714           2       0.00091598 /_  -30.0 =  0.00079326 +j -0.00045799
714           3       0.00091553 /_ -150.0 =  -0.00079274 +j -0.00045799

ELEMENT = "Line.L8"
704           1          0.01699 /_   90.0 =  4.9186E-006 +j   0.01699
704           2         0.016998 /_  -30.0 =   0.014721 +j -0.0084991
704           3          0.01699 /_ -150.0 =  -0.014711 +j -0.008499
------------
720           1         0.014429 /_   90.0 =  4.1757E-006 +j  0.014429
720           2         0.014437 /_  -30.0 =   0.012502 +j -0.0072183
720           3         0.014429 /_ -150.0 =  -0.012494 +j -0.0072183

ELEMENT = "Line.L9"
705           1         0.005175 /_   90.0 =  1.4974E-006 +j  0.005175
705           2        0.0051776 /_  -30.0 =  0.0044839 +j -0.0025888
705           3         0.005175 /_ -150.0 =  -0.0044809 +j -0.0025888
------------
742           1        0.0049422 /_   90.0 =  1.4299E-006 +j 0.0049422
742           2        0.0049447 /_  -30.0 =  0.0042822 +j -0.0024723
742           3        0.0049422 /_ -150.0 =  -0.0042794 +j -0.0024723

ELEMENT = "Line.L10"
705           1        0.0039103 /_   90.0 =  1.1324E-006 +j 0.0039103
705           2        0.0039123 /_  -30.0 =  0.0033881 +j -0.0019561
705           3        0.0039103 /_ -150.0 =  -0.0033859 +j -0.0019561
------------
712           1        0.0036776 /_   90.0 =  1.0631E-006 +j 0.0036776
712           2        0.0036794 /_  -30.0 =  0.0031865 +j -0.0018397
712           3        0.0036776 /_ -150.0 =  -0.0031843 +j -0.0018397

ELEMENT = "Line.L11"
706           1        0.0045426 /_   90.0 =  1.3151E-006 +j 0.0045426
706           2        0.0045449 /_  -30.0 =   0.003936 +j -0.0022725
706           3        0.0045426 /_ -150.0 =  -0.0039334 +j -0.0022725
------------
725           1        0.0043099 /_   90.0 =  1.2477E-006 +j 0.0043099
725           2        0.0043121 /_  -30.0 =  0.0037343 +j -0.002156
725           3        0.0043099 /_ -150.0 =  -0.0037319 +j -0.002156

ELEMENT = "Line.L12"
707           1         0.012131 /_   90.0 =  3.5123E-006 +j  0.012131
707           2         0.012137 /_  -30.0 =   0.010511 +j -0.0060683
707           3         0.012131 /_ -150.0 =  -0.010504 +j -0.0060683
------------
724           1         0.011898 /_   90.0 =  3.445E-006 +j  0.011898
724           2         0.011904 /_  -30.0 =   0.010309 +j -0.0059519
724           3         0.011898 /_ -150.0 =  -0.010302 +j -0.0059519

ELEMENT = "Line.L13"
707           1        0.0020133 /_   90.0 =  5.8322E-007 +j 0.0020133
707           2        0.0020144 /_  -30.0 =  0.0017445 +j -0.0010072
707           3        0.0020133 /_ -150.0 =  -0.0017433 +j -0.0010072
------------
722           1        0.0017806 /_   90.0 =  5.153E-007 +j 0.0017806
722           2        0.0017815 /_  -30.0 =  0.0015428 +j -0.00089075
722           3        0.0017806 /_ -150.0 =  -0.0015418 +j -0.00089075

ELEMENT = "Line.L14"
708           1        0.0084949 /_   90.0 =  2.4683E-006 +j 0.0084949
708           2        0.0084992 /_  -30.0 =  0.0073605 +j -0.0042496
708           3        0.0084949 /_ -150.0 =  -0.0073556 +j -0.0042496
------------
733           1        0.0040727 /_   90.0 =  1.1724E-006 +j 0.0040727
733           2        0.0040747 /_  -30.0 =  0.0035288 +j -0.0020374
733           3        0.0040727 /_ -150.0 =  -0.0035265 +j -0.0020374

ELEMENT = "Line.L15"
708           1         0.005175 /_   90.0 =  1.4995E-006 +j  0.005175
708           2        0.0051776 /_  -30.0 =  0.0044839 +j -0.0025888
708           3         0.005175 /_ -150.0 =  -0.0044809 +j -0.0025888
------------
732           1        0.0049422 /_   90.0 =  1.4311E-006 +j 0.0049422
732           2        0.0049447 /_  -30.0 =  0.0042822 +j -0.0024724
732           3        0.0049422 /_ -150.0 =  -0.0042794 +j -0.0024723

ELEMENT = "Line.L16"
709           1         0.011898 /_   90.0 =  3.446E-006 +j  0.011898
709           2         0.011904 /_  -30.0 =    0.01031 +j -0.0059522
709           3         0.011898 /_ -150.0 =  -0.010303 +j -0.0059522
------------
731           1         0.011666 /_   90.0 =  3.3786E-006 +j  0.011666
731           2         0.011672 /_  -30.0 =   0.010108 +j -0.0058358
731           3         0.011666 /_ -150.0 =  -0.010101 +j -0.0058358

ELEMENT = "Line.L17"
709           1        0.0089604 /_   90.0 =  2.6033E-006 +j 0.0089604
709           2        0.0089649 /_  -30.0 =  0.0077638 +j -0.0044825
709           3        0.0089604 /_ -150.0 =  -0.0077587 +j -0.0044824
------------
708           1        0.0036072 /_   90.0 =  1.0368E-006 +j 0.0036072
708           2         0.003609 /_  -30.0 =  0.0031255 +j -0.0018045
708           3        0.0036072 /_ -150.0 =  -0.0031234 +j -0.0018045

ELEMENT = "Line.L18"
710           1         0.003278 /_   90.0 =  9.5101E-007 +j  0.003278
710           2        0.0032796 /_  -30.0 =  0.0028402 +j -0.0016398
710           3         0.003278 /_ -150.0 =  -0.0028384 +j -0.0016398
------------
735           1        0.0030452 /_   90.0 =  8.8152E-007 +j 0.0030452
735           2        0.0030468 /_  -30.0 =  0.0026386 +j -0.0015234
735           3        0.0030453 /_ -150.0 =  -0.0026368 +j -0.0015234

ELEMENT = "Line.L19"
710           1         0.020351 /_   90.0 =  5.8978E-006 +j  0.020351
710           2         0.020361 /_  -30.0 =   0.017633 +j  -0.01018
710           3         0.020351 /_ -150.0 =  -0.017621 +j  -0.01018
------------
736           1         0.020118 /_   90.0 =  5.8307E-006 +j  0.020118
736           2         0.020128 /_  -30.0 =   0.017431 +j -0.010064
736           3         0.020118 /_ -150.0 =   -0.01742 +j -0.010064

ELEMENT = "Line.L20"
711           1        0.0079711 /_   90.0 =  2.3109E-006 +j 0.0079711
711           2        0.0079751 /_  -30.0 =  0.0069066 +j -0.0039876
711           3        0.0079711 /_ -150.0 =  -0.0069021 +j -0.0039875
------------
741           1        0.0077384 /_   90.0 =  2.2424E-006 +j 0.0077384
741           2        0.0077422 /_  -30.0 =   0.006705 +j -0.0038711
741           3        0.0077384 /_ -150.0 =  -0.0067005 +j -0.0038711

ELEMENT = "Line.L21"
711           1         0.003278 /_   90.0 =  9.5114E-007 +j  0.003278
711           2        0.0032796 /_  -30.0 =  0.0028402 +j -0.0016398
711           3         0.003278 /_ -150.0 =  -0.0028384 +j -0.0016398
------------
740           1        0.0030452 /_   90.0 =  8.8164E-007 +j 0.0030452
740           2        0.0030468 /_  -30.0 =  0.0026386 +j -0.0015234
740           3        0.0030453 /_ -150.0 =  -0.0026368 +j -0.0015234

ELEMENT = "Line.L22"
713           1          0.01219 /_   90.0 =  3.5299E-006 +j   0.01219
713           2         0.012196 /_  -30.0 =   0.010562 +j -0.0060978
713           3          0.01219 /_ -150.0 =  -0.010555 +j -0.0060978
------------
704           1        0.0082328 /_   90.0 =  2.3801E-006 +j 0.0082328
704           2        0.0082369 /_  -30.0 =  0.0071334 +j -0.0041185
704           3        0.0082328 /_ -150.0 =  -0.0071286 +j -0.0041185

ELEMENT = "Line.L23"
714           1        0.0083366 /_   90.0 =  2.4138E-006 +j 0.0083366
714           2        0.0083408 /_  -30.0 =  0.0072233 +j -0.0041704
714           3        0.0083366 /_ -150.0 =  -0.0072185 +j -0.0041704
------------
718           1        0.0081038 /_   90.0 =  2.3445E-006 +j 0.0081038
718           2        0.0081079 /_  -30.0 =  0.0070216 +j -0.004054
718           3        0.0081038 /_ -150.0 =  -0.007017 +j -0.0040539

ELEMENT = "Line.L24"
720           1         0.015125 /_   90.0 =  4.3788E-006 +j  0.015125
720           2         0.015133 /_  -30.0 =   0.013105 +j -0.0075665
720           3         0.015125 /_ -150.0 =  -0.013097 +j -0.0075664
------------
707           1         0.013962 /_   90.0 =  4.0422E-006 +j  0.013962
707           2         0.013969 /_  -30.0 =   0.012097 +j -0.0069843
707           3         0.013962 /_ -150.0 =  -0.012089 +j -0.0069843

ELEMENT = "Line.L25"
720           1         0.012131 /_   90.0 =  3.5118E-006 +j  0.012131
720           2         0.012137 /_  -30.0 =   0.010511 +j -0.0060687
720           3         0.012131 /_ -150.0 =  -0.010504 +j -0.0060686
------------
706           1         0.011433 /_   90.0 =  3.3098E-006 +j  0.011433
706           2         0.011439 /_  -30.0 =  0.0099062 +j -0.0057194
706           3         0.011433 /_ -150.0 =  -0.0098996 +j -0.0057193

ELEMENT = "Line.L26"
727           1        0.0060802 /_   90.0 =  1.7621E-006 +j 0.0060802
727           2        0.0060832 /_  -30.0 =  0.0052682 +j -0.0030416
727           3        0.0060802 /_ -150.0 =  -0.0052647 +j -0.0030416
------------
744           1        0.0049164 /_   90.0 =  1.4212E-006 +j 0.0049164
744           2        0.0049189 /_  -30.0 =  0.0042599 +j -0.0024595
744           3        0.0049165 /_ -150.0 =  -0.0042571 +j -0.0024594

ELEMENT = "Line.L27"
730           1        0.0070294 /_   90.0 =  2.0497E-006 +j 0.0070294
730           2        0.0070329 /_  -30.0 =  0.0060907 +j -0.0035165
730           3        0.0070294 /_ -150.0 =  -0.0060866 +j -0.0035164
------------
709           1       0.00082535 /_   90.0 =  2.2502E-007 +j 0.00082535
709           2       0.00082575 /_  -30.0 =  0.00071512 +j -0.00041287
709           3       0.00082535 /_ -150.0 =  -0.00071465 +j -0.00041288

ELEMENT = "Line.L28"
733           1         0.012975 /_   90.0 =  3.7654E-006 +j  0.012975
733           2         0.012981 /_  -30.0 =   0.011242 +j -0.0064908
733           3         0.012975 /_ -150.0 =  -0.011235 +j -0.0064907
------------
734           1        0.0090183 /_   90.0 =  2.6069E-006 +j 0.0090183
734           2        0.0090228 /_  -30.0 =  0.0078139 +j -0.0045114
734           3        0.0090183 /_ -150.0 =  -0.0078088 +j -0.0045114

ELEMENT = "Line.L29"
734           1         0.013615 /_   90.0 =  3.95E-006 +j  0.013615
734           2         0.013622 /_  -30.0 =   0.011797 +j -0.0068109
734           3         0.013615 /_ -150.0 =  -0.011789 +j -0.0068109
------------
737           1          0.01152 /_   90.0 =  3.334E-006 +j   0.01152
737           2         0.011526 /_  -30.0 =  0.0099818 +j -0.005763
737           3          0.01152 /_ -150.0 =  -0.0099752 +j -0.005763

ELEMENT = "Line.L30"
734           1        0.0088021 /_   90.0 =  2.5517E-006 +j 0.0088021
734           2        0.0088065 /_  -30.0 =  0.0076266 +j -0.0044033
734           3        0.0088021 /_ -150.0 =  -0.0076216 +j -0.0044032
------------
710           1        0.0076383 /_   90.0 =  2.2126E-006 +j 0.0076383
710           2        0.0076422 /_  -30.0 =  0.0066183 +j -0.0038211
710           3        0.0076384 /_ -150.0 =  -0.0066139 +j -0.0038211

ELEMENT = "Line.L31"
737           1        0.0086694 /_   90.0 =  2.5156E-006 +j 0.0086694
737           2        0.0086737 /_  -30.0 =  0.0075116 +j -0.0043369
737           3        0.0086694 /_ -150.0 =  -0.0075067 +j -0.0043368
------------
738           1        0.0070401 /_   90.0 =  2.0374E-006 +j 0.0070401
738           2        0.0070436 /_  -30.0 =     0.0061 +j -0.0035218
738           3        0.0070401 /_ -150.0 =  -0.0060959 +j -0.0035218

ELEMENT = "Line.L32"
738           1        0.0084366 /_   90.0 =  2.4467E-006 +j 0.0084366
738           2        0.0084408 /_  -30.0 =    0.00731 +j -0.0042204
738           3        0.0084366 /_ -150.0 =  -0.0073051 +j -0.0042204
------------
711           1        0.0072729 /_   90.0 =  2.1065E-006 +j 0.0072729
711           2        0.0072765 /_  -30.0 =  0.0063016 +j -0.0036383
711           3        0.0072729 /_ -150.0 =  -0.0062975 +j -0.0036382

ELEMENT = "Line.L33"
744           1         0.003278 /_   90.0 =  9.4995E-007 +j  0.003278
744           2        0.0032796 /_  -30.0 =  0.0028402 +j -0.0016398
744           3         0.003278 /_ -150.0 =  -0.0028384 +j -0.0016398
------------
728           1        0.0030452 /_   90.0 =  8.8057E-007 +j 0.0030452
728           2        0.0030468 /_  -30.0 =  0.0026386 +j -0.0015234
728           3        0.0030453 /_ -150.0 =  -0.0026368 +j -0.0015234

ELEMENT = "Line.L34"
744           1        0.0045426 /_   90.0 =  1.3155E-006 +j 0.0045426
744           2        0.0045449 /_  -30.0 =   0.003936 +j -0.0022725
744           3        0.0045427 /_ -150.0 =  -0.0039334 +j -0.0022725
------------
729           1        0.0043099 /_   90.0 =  1.2472E-006 +j 0.0043099
729           2        0.0043121 /_  -30.0 =  0.0037343 +j -0.002156
729           3        0.0043099 /_ -150.0 =  -0.0037319 +j -0.002156

ELEMENT = "Line.L35"
799R          1         0.085554 /_   90.0 =  2.4748E-005 +j  0.085554
799R          2         0.085597 /_  -30.0 =   0.074129 +j -0.042798
799R          3         0.085554 /_ -150.0 =   -0.07408 +j -0.042798
------------
701           1         0.069575 /_   90.0 =  2.0085E-005 +j  0.069575
701           2         0.069609 /_  -30.0 =   0.060283 +j -0.034805
701           3         0.069575 /_ -150.0 =  -0.060243 +j -0.034805

ELEMENT = "Transformer.REG1A"
799           1        0.0078656 /_   90.0 =  2.3053E-006 +j 0.0078656
799           2        0.0079264 /_  -90.8 =  -0.00010654 +j -0.0079257
------------
799R          1        0.0081061 /_  -90.0 =  -2.3747E-006 +j -0.0081061
799R          2        0.0080467 /_   90.7 =  -0.00010186 +j  0.008046

ELEMENT = "Transformer.REG1C"
799           3        0.0078656 /_ -150.0 =  -0.0068107 +j -0.0039348
799           2        0.0079264 /_   30.8 =  0.0068106 +j 0.0040551
------------
799R          3        0.0081061 /_   30.0 =   0.007019 +j 0.0040551
799R          2        0.0080467 /_ -150.7 =  -0.007019 +j -0.0039348

ELEMENT = "Line.JUMPER"
799           2      4.1089E-006 /_  -30.0 =  3.5579E-006 +j -2.0554E-006
------------
799R          2      4.1089E-006 /_  150.0 =  -3.5579E-006 +j 2.0554E-006

= = = = = = = = = = = = = = = = = = =  = = = = = = = = = = =  = =

Power Conversion Elements

  Bus     Phase    Magnitude, A     Angle      (Real)   +j  (Imag)

ELEMENT = "Load.S701A"
701           1           32.609 /_    3.4 =     32.551 +j    1.9538
701           2           32.609 /_ -176.6 =    -32.551 +j   -1.9538

ELEMENT = "Load.S701B"
701           2           32.609 /_ -116.6 =    -14.583 +j   -29.167
701           3           32.609 /_   63.4 =     14.583 +j    29.167

ELEMENT = "Load.S701C"
701           3           81.523 /_  123.4 =    -44.918 +j    68.032
701           1           81.523 /_  -56.6 =     44.918 +j   -68.032

ELEMENT = "Load.S712C"
712           3           19.571 /_  124.8 =    -11.169 +j    16.071
712           1           19.571 /_  -55.2 =     11.169 +j   -16.071

ELEMENT = "Load.S713C"
713           3           19.571 /_  124.8 =    -11.169 +j    16.071
713           1           19.571 /_  -55.2 =     11.169 +j   -16.071

ELEMENT = "Load.S714A"
714           1           3.9142 /_    4.8 =     3.9005 +j   0.32745
714           2           3.9142 /_ -175.2 =    -3.9005 +j  -0.32745

ELEMENT = "Load.S714B"
714           2           4.8457 /_ -115.5 =    -2.0833 +j    -4.375
714           3           4.8457 /_   64.5 =     2.0833 +j     4.375

ELEMENT = "Load.S718A"
718           1           19.571 /_    4.8 =     19.503 +j    1.6373
718           2           19.571 /_ -175.2 =    -19.503 +j   -1.6373

ELEMENT = "Load.S720C"
720           3           19.571 /_  124.8 =    -11.169 +j    16.071
720           1           19.571 /_  -55.2 =     11.169 +j   -16.071

ELEMENT = "Load.S722B"
722           2           32.609 /_ -116.6 =    -14.583 +j   -29.167
722           3           32.609 /_   63.4 =     14.583 +j    29.167

ELEMENT = "Load.S722C"
722           3           4.8457 /_  124.5 =    -2.7472 +j    3.9917
722           1           4.8457 /_  -55.5 =     2.7472 +j   -3.9917

ELEMENT = "Load.S724B"
724           2           9.7828 /_ -116.6 =     -4.375 +j     -8.75
724           3           9.7828 /_   63.4 =      4.375 +j      8.75

ELEMENT = "Load.S725B"
725           2           9.7828 /_ -116.6 =     -4.375 +j     -8.75
725           3           9.7828 /_   63.4 =      4.375 +j      8.75

ELEMENT = "Load.S727C"
727           3           9.7828 /_  123.4 =    -5.3902 +j    8.1638
727           1           9.7828 /_  -56.6 =     5.3902 +j   -8.1638

ELEMENT = "Load.S728"
728           1           16.944 /_  -26.6 =     15.155 +j   -7.5777
728           2           16.944 /_ -146.6 =     -14.14 +j   -9.3361
728           3           16.944 /_   93.4 =    -1.0152 +j    16.914

ELEMENT = "Load.S729A"
729           1           9.7828 /_    3.4 =     9.7652 +j   0.58612
729           2           9.7828 /_ -176.6 =    -9.7652 +j  -0.58612

ELEMENT = "Load.S730C"
730           3           19.571 /_  124.8 =    -11.169 +j    16.071
730           1           19.571 /_  -55.2 =     11.169 +j   -16.071

ELEMENT = "Load.S731B"
731           2           19.571 /_ -115.2 =    -8.3334 +j   -17.708
731           3           19.571 /_   64.8 =     8.3334 +j    17.708

ELEMENT = "Load.S732C"
732           3           9.7828 /_  123.4 =    -5.3902 +j    8.1638
732           1           9.7828 /_  -56.6 =     5.3902 +j   -8.1638

ELEMENT = "Load.S733A"
733           1           19.571 /_    4.8 =     19.503 +j    1.6372
733           2           19.571 /_ -175.2 =    -19.503 +j   -1.6372

ELEMENT = "Load.S734C"
734           3           9.7828 /_  123.4 =    -5.3902 +j    8.1638
734           1           9.7828 /_  -56.6 =     5.3902 +j   -8.1638

ELEMENT = "Load.S735C"
735           3           19.571 /_  124.8 =    -11.169 +j    16.071
735           1           19.571 /_  -55.2 =     11.169 +j   -16.071

ELEMENT = "Load.S736B"
736           2           9.7828 /_ -116.6 =     -4.375 +j     -8.75
736           3           9.7828 /_   63.4 =      4.375 +j      8.75

ELEMENT = "Load.S737A"
737           1           32.609 /_    3.4 =     32.551 +j    1.9537
737           2           32.609 /_ -176.6 =    -32.551 +j   -1.9537

ELEMENT = "Load.S738A"
738           1           29.256 /_    3.8 =     29.191 +j    1.9388
738           2           29.256 /_ -176.2 =    -29.191 +j   -1.9388

ELEMENT = "Load.S740C"
740           3           19.571 /_  124.8 =    -11.169 +j    16.071
740           1           19.571 /_  -55.2 =     11.169 +j   -16.071

ELEMENT = "Load.S741C"
741           3           9.7828 /_  123.4 =    -5.3902 +j    8.1639
741           1           9.7828 /_  -56.6 =     5.3902 +j   -8.1639

ELEMENT = "Load.S742A"
742           1           1.8634 /_    3.4 =       1.86 +j   0.11164
742           2           1.8634 /_ -176.6 =      -1.86 +j  -0.11164

ELEMENT = "Load.S742B"
742           2           19.571 /_ -115.2 =    -8.3334 +j   -17.708
742           3           19.571 /_   64.8 =     8.3334 +j    17.708

ELEMENT = "Load.S744A"
744           1           9.7828 /_    3.4 =     9.7652 +j   0.58613
744           2           9.7828 /_ -176.6 =    -9.7652 +j  -0.58613

