IEEETestCases/37Bus/ieee37_Curr_Seq.Txt

SYMMETRICAL COMPONENT CURRENTS BY CIRCUIT ELEMENT (first 3 phases)

Element             Term      I1         I2         %I2/I1    I0         %I0/I1   %Normal %Emergency

"VSOURCE.SOURCE" ..   1  0.00015994   5.4128E-008     0.03  1.4552E-011     0.00      0.00     0.00
   -                  2  0.00015994   5.4128E-008     0.03  1.4552E-011     0.00      0.00     0.00
"TRANSFORMER.SUBXF"   1  0.00015994   5.4119E-008     0.03  4.7369E-015     0.00      0.00     0.00
   -                  2   0.0078643   2.5932E-006     0.03  3.337E-008     0.00      0.00     0.00
"TRANSFORMER.XFM1"    1  4.0094E-005   7.6401E-012     0.00  6.6718E-009     0.02      0.00     0.00
   -                  2  6.7372E-013   5.9025E-012   876.11  1.819E-012   269.99      0.00     0.00
"LINE.L1" .........   1    0.039963   6.454E-009     0.00  1.3307E-005     0.03      0.01     0.01
   -                  2    0.024446   3.394E-009     0.00  8.1284E-006     0.03      0.00     0.00
"LINE.L2" .........   1   0.0069063   8.918E-010     0.00  2.2982E-006     0.03      0.00     0.00
   -                  2   0.0057423   1.2125E-009     0.00  1.9113E-006     0.03      0.00     0.00
"LINE.L3" .........   1   0.0092819   1.0041E-009     0.00  3.0886E-006     0.03      0.00     0.00
   -                  2    0.004859   1.3247E-009     0.00  1.6176E-006     0.03      0.00     0.00
"LINE.L4" .........   1     0.04878   9.3551E-009     0.00  1.6242E-005     0.03      0.01     0.01
   -                  2    0.039782   5.7948E-009     0.00  1.3231E-005     0.03      0.00     0.00
"LINE.L5" .........   1   0.0046093   1.1437E-009     0.00  1.5343E-006     0.03      0.00     0.00
   -                  2   0.0029798   2.3444E-010     0.00  9.9141E-007     0.03      0.00     0.00
"LINE.L6" .........   1    0.015119   3.7988E-009     0.00  5.0395E-006     0.03      0.00     0.00
   -                  2   0.0084487   7.3339E-010     0.00  2.8041E-006     0.03      0.00     0.00
"LINE.L7" .........   1    0.001614   6.313E-010     0.00  5.3732E-007     0.03      0.00     0.00
   -                  2  0.00091568   3.4154E-010     0.00  3.0458E-007     0.03      0.00     0.00
"LINE.L8" .........   1    0.016992   2.0199E-009     0.00  5.6544E-006     0.03      0.00     0.00
   -                  2    0.014432   3.3356E-009     0.00  4.8038E-006     0.03      0.00     0.00
"LINE.L9" .........   1   0.0051758   5.3656E-010     0.00  1.7222E-006     0.03      0.00     0.00
   -                  2    0.004943   1.1436E-009     0.00  1.6454E-006     0.03      0.00     0.00
"LINE.L10" ........   1    0.003911   7.9346E-010     0.00  1.3017E-006     0.03      0.00     0.00
   -                  2   0.0036782   6.5382E-010     0.00  1.224E-006     0.03      0.00     0.00
"LINE.L11" ........   1   0.0045434   6.1803E-010     0.00  1.5119E-006     0.03      0.00     0.00
   -                  2   0.0043106   9.2183E-010     0.00  1.4348E-006     0.03      0.00     0.00
"LINE.L12" ........   1    0.012133   1.9391E-009     0.00  4.0376E-006     0.03      0.00     0.00
   -                  2      0.0119   2.2492E-009     0.00  3.9605E-006     0.03      0.00     0.00
"LINE.L13" ........   1   0.0020137   2.4847E-010     0.00  6.6958E-007     0.03      0.00     0.00
   -                  2   0.0017809   8.8214E-010     0.00  5.9328E-007     0.03      0.00     0.00
"LINE.L14" ........   1   0.0084963   2.8714E-009     0.00  2.8288E-006     0.03      0.00     0.00
   -                  2   0.0040734   4.4949E-010     0.00  1.3545E-006     0.03      0.00     0.00
"LINE.L15" ........   1   0.0051758   1.0428E-009     0.00  1.7226E-006     0.03      0.00     0.00
   -                  2    0.004943   9.3476E-010     0.00  1.645E-006     0.03      0.00     0.00
"LINE.L16" ........   1      0.0119   1.8982E-009     0.00  3.9602E-006     0.03      0.00     0.00
   -                  2    0.011668    2.57E-009     0.00  3.8834E-006     0.03      0.00     0.00
"LINE.L17" ........   1   0.0089619   2.9844E-009     0.00  2.9838E-006     0.03      0.00     0.00
   -                  2   0.0036078   6.2676E-010     0.00  1.1994E-006     0.03      0.00     0.00
"LINE.L18" ........   1   0.0032785   8.1582E-010     0.00  1.0913E-006     0.03      0.00     0.00
   -                  2   0.0030458   6.4818E-010     0.00  1.0135E-006     0.03      0.00     0.00
"LINE.L19" ........   1    0.020354   3.8872E-009     0.00  6.7738E-006     0.03      0.01     0.00
   -                  2    0.020121   4.2022E-009     0.00  6.6967E-006     0.03      0.00     0.00
"LINE.L20" ........   1   0.0079724   1.6574E-009     0.00  2.6534E-006     0.03      0.00     0.00
   -                  2   0.0077397   1.5505E-009     0.00  2.5757E-006     0.03      0.00     0.00
"LINE.L21" ........   1   0.0032785   8.2078E-010     0.00  1.0913E-006     0.03      0.00     0.00
   -                  2   0.0030458   6.6659E-010     0.00  1.0135E-006     0.03      0.00     0.00
"LINE.L22" ........   1    0.012192   1.4426E-009     0.00  4.0568E-006     0.03      0.00     0.00
   -                  2   0.0082342   1.989E-009     0.00  2.741E-006     0.03      0.00     0.00
"LINE.L23" ........   1    0.008338   1.711E-009     0.00  2.7751E-006     0.03      0.00     0.00
   -                  2   0.0081052   1.1067E-009     0.00  2.6972E-006     0.03      0.00     0.00
"LINE.L24" ........   1    0.015128   1.8777E-009     0.00  5.0339E-006     0.03      0.00     0.00
   -                  2    0.013964   3.1763E-009     0.00  4.6481E-006     0.03      0.00     0.00
"LINE.L25" ........   1    0.012133   1.9204E-009     0.00  4.0378E-006     0.03      0.00     0.00
   -                  2    0.011435   2.1455E-009     0.00  3.8058E-006     0.03      0.00     0.00
"LINE.L26" ........   1   0.0060812   1.4006E-009     0.00  2.0241E-006     0.03      0.00     0.00
   -                  2   0.0049173   6.5987E-010     0.00  1.6363E-006     0.03      0.00     0.00
"LINE.L27" ........   1   0.0070306   2.2583E-009     0.00  2.3474E-006     0.03      0.00     0.00
   -                  2  0.00082548   7.9023E-010     0.00  2.6716E-007     0.03      0.00     0.00
"LINE.L28" ........   1    0.012977   3.4907E-009     0.00  4.3199E-006     0.03      0.00     0.00
   -                  2   0.0090198   9.0749E-010     0.00  3.0009E-006     0.03      0.00     0.00
"LINE.L29" ........   1    0.013617   3.7317E-009     0.00  4.5328E-006     0.03      0.00     0.00
   -                  2    0.011522   1.3052E-009     0.00  3.8337E-006     0.03      0.00     0.00
"LINE.L30" ........   1   0.0088036   1.6689E-009     0.00  2.9299E-006     0.03      0.00     0.00
   -                  2   0.0076396   1.6601E-009     0.00  2.5425E-006     0.03      0.00     0.00
"LINE.L31" ........   1   0.0086708   2.2892E-009     0.00  2.8863E-006     0.03      0.00     0.00
   -                  2   0.0070413   9.1435E-010     0.00  2.3428E-006     0.03      0.00     0.00
"LINE.L32" ........   1    0.008438   1.8883E-009     0.00  2.8085E-006     0.03      0.00     0.00
   -                  2   0.0072741   1.4952E-009     0.00  2.4206E-006     0.03      0.00     0.00
"LINE.L33" ........   1   0.0032785   5.8651E-010     0.00  1.0911E-006     0.03      0.00     0.00
   -                  2   0.0030458   5.5794E-010     0.00  1.0136E-006     0.03      0.00     0.00
"LINE.L34" ........   1   0.0045434   9.7173E-010     0.00  1.5122E-006     0.03      0.00     0.00
   -                  2   0.0043106   6.5042E-010     0.00  1.4345E-006     0.03      0.00     0.00
"LINE.L35" ........   1    0.085568   1.1143E-008     0.00  2.8485E-005     0.03      0.02     0.01
   -                  2    0.069586   9.0125E-009     0.00  2.3151E-005     0.03      0.00     0.00
"TRANSFORMER.REG1A"   1   0.0078656            0     0.00           0     0.00      0.00     0.00
   -                  2   0.0081061            0     0.00           0     0.00      0.00     0.00
"TRANSFORMER.REG1C"   1   0.0078656            0     0.00           0     0.00      0.00     0.00
   -                  2   0.0081061            0     0.00           0     0.00      0.00     0.00
"LINE.JUMPER" .....   1  4.1089E-006            0     0.00           0     0.00      0.00     0.00
   -                  2  4.1089E-006            0     0.00           0     0.00      0.00     0.00
"LOAD.S701A" ......   1      32.609            0     0.00           0     0.00      0.00     0.00
"LOAD.S701B" ......   1      32.609            0     0.00           0     0.00      0.00     0.00
"LOAD.S701C" ......   1      81.523            0     0.00           0     0.00      0.00     0.00
"LOAD.S712C" ......   1      19.571            0     0.00           0     0.00      0.00     0.00
"LOAD.S713C" ......   1      19.571            0     0.00           0     0.00      0.00     0.00
"LOAD.S714A" ......   1      3.9142            0     0.00           0     0.00      0.00     0.00
"LOAD.S714B" ......   1      4.8457            0     0.00           0     0.00      0.00     0.00
"LOAD.S718A" ......   1      19.571            0     0.00           0     0.00      0.00     0.00
"LOAD.S720C" ......   1      19.571            0     0.00           0     0.00      0.00     0.00
"LOAD.S722B" ......   1      32.609            0     0.00           0     0.00      0.00     0.00
"LOAD.S722C" ......   1      4.8457            0     0.00           0     0.00      0.00     0.00
"LOAD.S724B" ......   1      9.7828            0     0.00           0     0.00      0.00     0.00
"LOAD.S725B" ......   1      9.7828            0     0.00           0     0.00      0.00     0.00
"LOAD.S727C" ......   1      9.7828            0     0.00           0     0.00      0.00     0.00
"LOAD.S728" .......   1      16.944   7.6734E-009     0.00   2.34E-015     0.00      0.00     0.00
"LOAD.S729A" ......   1      9.7828            0     0.00           0     0.00      0.00     0.00
"LOAD.S730C" ......   1      19.571            0     0.00           0     0.00      0.00     0.00
"LOAD.S731B" ......   1      19.571            0     0.00           0     0.00      0.00     0.00
"LOAD.S732C" ......   1      9.7828            0     0.00           0     0.00      0.00     0.00
"LOAD.S733A" ......   1      19.571            0     0.00           0     0.00      0.00     0.00
"LOAD.S734C" ......   1      9.7828            0     0.00           0     0.00      0.00     0.00
"LOAD.S735C" ......   1      19.571            0     0.00           0     0.00      0.00     0.00
"LOAD.S736B" ......   1      9.7828            0     0.00           0     0.00      0.00     0.00
"LOAD.S737A" ......   1      32.609            0     0.00           0     0.00      0.00     0.00
"LOAD.S738A" ......   1      29.256            0     0.00           0     0.00      0.00     0.00
"LOAD.S740C" ......   1      19.571            0     0.00           0     0.00      0.00     0.00
"LOAD.S741C" ......   1      9.7828            0     0.00           0     0.00      0.00     0.00
"LOAD.S742A" ......   1      1.8634            0     0.00           0     0.00      0.00     0.00
"LOAD.S742B" ......   1      19.571            0     0.00           0     0.00      0.00     0.00
"LOAD.S744A" ......   1      9.7828            0     0.00           0     0.00      0.00     0.00
